-- Copyright (C) 2023 NORCE
-- This deck was generated by pyopmspe11 https://github.com/OPM/pyopmspe11
----------------------------------------------------------------------------
RUNSPEC
----------------------------------------------------------------------------
DIMENS 
220 11 18 /

EQLDIMS
/

TABDIMS
7 1* 2000 /

OIL
GAS
CO2STORE
DISGAS
VAPOIL
DIFFUSE
THERMAL

METRIC

START
1 'JAN' 2025 /

WELLDIMS
2 7 2 2 /

UNIFOUT
----------------------------------------------------------------------------
GRID
----------------------------------------------------------------------------
INIT

INCLUDE
'GRID.INC' /

INCLUDE
'PERMX.INC' /

COPY 
PERMX PERMY /
PERMX PERMZ /
/

MULTIPLY
PERMZ 0.1 /
/

INCLUDE
'PORO.INC' /

INCLUDE
'THCONR.INC' /

BCCON 
1 1 220 1 11 1 1 Z-/
2 1 220 1 11 18 18 Z/
/

----------------------------------------------------------------------------
EDIT
----------------------------------------------------------------------------
INCLUDE
'PVBOUNDARIES.INC' /
----------------------------------------------------------------------------
PROPS
----------------------------------------------------------------------------
INCLUDE
'TABLES.INC' /

DIFFC
18.01528E-3 44.018E-3 0.001728 0.001728 8.64e-05 8.64e-05 /

SPECROCK
36.12 2125.0
70.0 2125.0 /
36.12 2125.0
70.0 2125.0 /
36.12 2125.0
70.0 2125.0 /
36.12 2125.0
70.0 2125.0 /
36.12 2125.0
70.0 2125.0 /
36.12 2125.0
70.0 2125.0 /
36.12 2125.0
70.0 2125.0 /

THCO2MIX
NONE NONE NONE /
----------------------------------------------------------------------------
REGIONS
----------------------------------------------------------------------------
INCLUDE
'SATNUM.INC' /
INCLUDE
'FIPNUM.INC' /


----------------------------------------------------------------------------
SOLUTION
---------------------------------------------------------------------------
EQUIL
1055.0416666666667 300.0 1200.0 0 0 0 1 1 0 /

RPTRST
'BASIC=2' DEN   /

RSVD
0   0.0
1355.0416666666667 0.0 /

RVVD
0   0.0
1355.0416666666667 0.0 /

RTEMPVD
0   36.12
1355.0416666666667 70.0 /
----------------------------------------------------------------------------
SUMMARY
----------------------------------------------------------------------------
PERFORMA
FGIP
FGIR
FGIT
RGKDI
/
RGKDM
/
RGIP
/
RWCD
/
WBHP
/
WGIR
/
WGIT
/
BPR
143 6 11 /
169 6 2 /
/
----------------------------------------------------------------------------
SCHEDULE
----------------------------------------------------------------------------
RPTRST
'BASIC=2' DEN RESIDUAL   /


BCPROP
1 THERMAL /
2 THERMAL /
/

WELSPECS
'INJ0' 'G1' 69 3 1* 'GAS' 0.15/
'INJ1' 'G1' 169 3 1* 'GAS' 0.15/
/
COMPDAT
'INJ0' 69 3	14 14 'OPEN' 2* 0.3 /
'INJ0' 69 4	14 14 'OPEN' 2* 0.3 /
'INJ0' 69 5	14 14 'OPEN' 2* 0.3 /
'INJ0' 69 6	15 15 'OPEN' 2* 0.3 /
'INJ0' 69 7	14 14 'OPEN' 2* 0.3 /
'INJ0' 69 8	14 14 'OPEN' 2* 0.3 /
'INJ0' 69 9	14 14 'OPEN' 2* 0.3 /
'INJ1' 169 3 8	8	'OPEN' 2* 0.3 /
'INJ1' 169 4 8	8	'OPEN' 2* 0.3 /
'INJ1' 169 5 8	8	'OPEN' 2* 0.3 /
'INJ1' 169 6 8	8	'OPEN' 2* 0.3 /
'INJ1' 169 7 8	8	'OPEN' 2* 0.3 /
'INJ1' 169 8 8	8	'OPEN' 2* 0.3 /
'INJ1' 169 9 8	8	'OPEN' 2* 0.3 /
/

TUNING
0.01 365.0 1e-10 2* 1e-12 /
/
/
WCONINJE
'INJ0' 'GAS' OPEN
'RATE' 2.312102E+06 1* 400/
'INJ1' 'GAS' OPEN
'RATE' 2.312102E+06 1* 400/
/
WTEMP
'INJ0' 10.0 /
'INJ1' 10.0 /
/
TSTEP
5*1825.0
/
